*********************************************************************
** Abaqus/fromAnsys 6.16-1
**
** reading Ansys data from: G:\Project1\ANSYS_Project2\Project2.cdb
**   creating Abaqus input: G:\Project1\ANSYS_Project2\Project2.inp
**  writing diagnostics to: G:\Project1\ANSYS_Project2\Project2.log
**
** Ansys Commands processed:
**      command   number
** ------------   ------
**         ACEL        1
**       ANTYPE        1
**        CGLOC        1
**      CGOMEGA        1
**      CMBLOCK        1
**            D     2400
**       DCGOMG        1
**       DOMEGA        1
**       EBLOCK        1
**           ET        1
**       MODOPT        1
**       MPTEMP        4
**       MPDATA        4
**       MXPAND        2
**       NBLOCK        1
**        OMEGA        1
**         *SET       11
** Ansys Commands NOT processed:
**      command   number
** ------------   ------
**       ALPHAD        1
**        BETAD        1
**       BFUNIF        1
**         *DIM        1
**       DMPRAT        1
**          DOF        1
**        *ELSE        1
**       *ENDIF        1
**        ERESX        1
**       EXTOPT        3
**       FINISH        1
**          /GO        1
**          *IF        1
**            N        1
**        /NOPR        1
**       NUMOFF        4
**       /PREP7        1
**       SUBOPT        1
**       /TITLE        1
**         TREF        1
**
*HEADING
**
** ---------------------------------------------------
** ---- *NODE ----------------------------------------
** ---------------------------------------------------
**
*SYSTEM
**
*NODE, SYSTEM=R
      1, 0.075000003, 0.075000003, 0
      2, 0.100000001, 0.075000003, 0
      3, 0.100000001, 0.0500000007, 0
      4, 0.075000003, 0.0500000007, 0
      5, 0.100000001, 0, 0
      6, 0.075000003, 0, 0
      7, 0.100000001, -0.0500000007, 0
      8, 0.075000003, -0.0500000007, 0
      9, 0.100000001, -0.075000003, 0
     10, 0.075000003, -0.075000003, 0
     11, 0.0500000007, 0, 0
     12, 0.0500000007, 0.0399999991, 0
     13, 0.0599999987, 0.0500000007, 0
     14, 0.0500000007, 0.0599999987, 0
     15, 0.0500000007, 0.075000003, 0
     16, 0.0399999991, 0.0500000007, 0
     17, 0, 0.0500000007, 0
     18, 0, 0.075000003, 0
     19, -0.0399999991, -0.0500000007, 0
     20, 0, -0.0500000007, 0
** ... 11395 like lines cut
**
** -------------------------------------
** following 8492 elements have elemtype=185 MAT=1 ET=1 REAL=0
*SOLID SECTION, ELSET=ES2_M1_E1_R0, MATERIAL=MATERIAL-1
*Element, type=C3D8, ELSET=ES2_M1_E1_R0
1, 80,645,65,1,2363,2928,2348,2284
2, 645,646,66,65,2928,2929,2349,2348
3, 646,647,67,66,2929,2930,2350,2349
4, 647,648,68,67,2930,2931,2351,2350
5, 648,69,2,68,2931,2352,2285,2351
6, 79,649,645,80,2362,2932,2928,2363
7, 649,650,646,645,2932,2933,2929,2928
8, 650,651,647,646,2933,2934,2930,2929
9, 651,652,648,647,2934,2935,2931,2930
10, 652,70,69,648,2935,2353,2352,2931
11, 78,653,649,79,2361,2936,2932,2362
12, 653,654,650,649,2936,2937,2933,2932
13, 654,655,651,650,2937,2938,2934,2933
14, 655,656,652,651,2938,2939,2935,2934
15, 656,71,70,652,2939,2354,2353,2935
16, 77,657,653,78,2360,2940,2936,2361
17, 657,658,654,653,2940,2941,2937,2936
18, 658,659,655,654,2941,2942,2938,2937
19, 659,660,656,655,2942,2943,2939,2938
20, 660,72,71,656,2943,2355,2354,2939
** ... 8472 like lines cut
**
*NSET, NSET=NS_BOUNDARY_3
2,3,5,7,9,39,40,41,42,43,44,52,53,54,55,
56,57,58,59,60,61,62,63,64,69,70,71,72,94,95,
96,97,98,99,100,101,102,116,117,118,119,120,121,122,123,
124,133,134,135,136,413,414,415,416,417,418,419,420,429,430,
431,432,437,438,439,440,441,442,443,444,445,450,451,452,453,
454,455,456,457,458,459,460,461,462,533,534,535,536,541,542,
543,544,545,546,547,548,549,554,555,556,557,558,559,560,561,
562,567,568,569,570,575,576,577,578,579,580,581,582,583,584,
585,586,587,588,589,590,595,596,597,598,603,604,605,606,607,
608,609,610,611,616,617,618,619,620,621,622,623,624,629,630,
631,632,637,638,639,640,641,642,643,644,2285,2286,2288,2290,2292,
2322,2323,2324,2325,2326,2327,2335,2336,2337,2338,2339,2340,2341,2342,2343,
2344,2345,2346,2347,2352,2353,2354,2355,2377,2378,2379,2380,2381,2382,2383,
2384,2385,2399,2400,2401,2402,2403,2404,2405,2406,2407,2416,2417,2418,2419,
2696,2697,2698,2699,2700,2701,2702,2703,2712,2713,2714,2715,2720,2721,2722,
2723,2724,2725,2726,2727,2728,2733,2734,2735,2736,2737,2738,2739,2740,2741,
2742,2743,2744,2745,2816,2817,2818,2819,2824,2825,2826,2827,2828,2829,2830,
2831,2832,2837,2838,2839,2840,2841,2842,2843,2844,2845,2850,2851,2852,2853,
2858,2859,2860,2861,2862,2863,2864,2865,2866,2867,2868,2869,2870,2871,2872,
2873,2878,2879,2880,2881,2886,2887,2888,2889,2890,2891,2892,2893,2894,2899,
** ... 34 like lines cut
**
** ---------------------------------------------------
** ---- *MATERIAL ------------------------------------
** ---------------------------------------------------
**
*MATERIAL, NAME=MATERIAL-1
*DENSITY
1.55000000e+03,
*ELASTIC
7.80000000e+06, 2.40000000e-01
**
** following 1 *ELSETs are translated from 1 CMBLOCKs
**
*ELSET, ELSET=AUTO1, GENERATE
       1,    8492, 1
**
** ---------------------------------------------------
*STEP, NAME=STEP-1
*FREQUENCY, EIGENSOLVER=LANCZOS
30, , ,
** 
** BOUNDARY CONDITIONS
** 
*BOUNDARY
NS_BOUNDARY_3,  1,  1, 0
NS_BOUNDARY_3,  2,  2, 0
NS_BOUNDARY_3,  3,  3, 0
**
*END STEP
